<?xml version="1.0" encoding="UTF-8"?>

<!-- generated on 2025-08-31 02:21:02 by Eclipse SUMO netedit Version 1.24.0
<neteditConfiguration xmlns:xsi="http://www.w3.org/2001/XMLSchema-instance" xsi:noNamespaceSchemaLocation="http://sumo.dlr.de/xsd/neteditConfiguration.xsd">

    <input>
        <sumo-net-file value="C:\Users\User\Desktop\_sumo_\test.net.xml"/>
    </input>

    <output>
        <output-file value="C:\Users\User\Desktop\_sumo_\test.net.xml"/>
    </output>

    <processing>
        <geometry.min-radius.fix.railways value="false"/>
        <geometry.avoid-overlap value="false"/>
        <geometry.max-grade.fix value="false"/>
        <offset.disable-normalization value="true"/>
        <lefthand value="0"/>
    </processing>

    <junctions>
        <no-turnarounds value="true"/>
        <junctions.corner-detail value="5"/>
        <junctions.limit-turn-speed value="5.50"/>
        <rectangular-lane-cut value="0"/>
    </junctions>

    <pedestrian>
        <walkingareas value="0"/>
    </pedestrian>

</neteditConfiguration>
-->

<net version="1.20" junctionCornerDetail="5" limitTurnSpeed="5.50" avoidOverlap="0" xmlns:xsi="http://www.w3.org/2001/XMLSchema-instance" xsi:noNamespaceSchemaLocation="http://sumo.dlr.de/xsd/net_file.xsd">

    <location netOffset="0.00,0.00" convBoundary="-36.57,-93.90,173.88,14.47" origBoundary="-10000000000.00,-10000000000.00,10000000000.00,10000000000.00" projParameter="!"/>

    <edge id=":J2_0" function="internal">
        <lane id=":J2_0_0" index="0" speed="13.89" length="14.40" shape="65.33,16.07 50.93,16.07"/>
    </edge>
    <edge id=":J2_1" function="internal">
        <lane id=":J2_1_0" index="0" speed="8.01" length="4.06" shape="65.33,16.07 61.49,15.52 61.34,15.43"/>
    </edge>
    <edge id=":J2_6" function="internal">
        <lane id=":J2_6_0" index="0" speed="8.01" length="10.13" shape="61.34,15.43 58.74,13.87 57.08,11.12 56.53,7.27"/>
    </edge>
    <edge id=":J2_2" function="internal">
        <lane id=":J2_2_0" index="0" speed="6.51" length="9.04" shape="59.73,7.26 60.08,9.72 61.13,11.47 62.89,12.52 65.33,12.87"/>
    </edge>
    <edge id=":J2_3" function="internal">
        <lane id=":J2_3_0" index="0" speed="8.00" length="14.20" shape="59.73,7.26 59.18,11.12 57.54,13.87 54.79,15.52 50.93,16.07"/>
    </edge>
    <edge id=":J2_4" function="internal">
        <lane id=":J2_4_0" index="0" speed="6.50" length="9.03" shape="50.93,12.87 53.39,12.52 55.13,11.47 56.18,9.72 56.53,7.27"/>
    </edge>
    <edge id=":J2_5" function="internal">
        <lane id=":J2_5_0" index="0" speed="13.89" length="14.40" shape="50.93,12.87 65.33,12.87"/>
    </edge>

    <edge id="-E0" from="J1" to="J2" priority="-1">
        <lane id="-E0_0" index="0" speed="13.89" length="108.55" shape="173.88,16.07 65.33,16.07"/>
    </edge>
    <edge id="-E00" from="J2" to="J0" priority="-1">
        <lane id="-E00_0" index="0" speed="13.89" length="87.50" shape="50.93,16.07 -36.57,16.07"/>
    </edge>
    <edge id="-E1" from="J2" to="J3" priority="-1">
        <lane id="-E1_0" index="0" speed="13.89" length="101.17" shape="56.53,7.27 56.37,-93.90"/>
    </edge>
    <edge id="E0" from="J0" to="J2" priority="-1">
        <lane id="E0_0" index="0" speed="13.89" length="87.50" shape="-36.57,12.87 50.93,12.87"/>
    </edge>
    <edge id="E0.94" from="J2" to="J1" priority="-1">
        <lane id="E0.94_0" index="0" speed="13.89" length="108.55" shape="65.33,12.87 173.88,12.87"/>
    </edge>
    <edge id="E1" from="J3" to="J2" priority="-1">
        <lane id="E1_0" index="0" speed="13.89" length="101.17" shape="59.57,-93.90 59.73,7.26"/>
    </edge>

    <tlLogic id="J2" type="static" programID="0" offset="0">
        <phase duration="22" state="GgrGG"/>
        <phase duration="4"  state="yyrGy"/>
        <phase duration="10" state="rrGGr"/>
        <phase duration="4"  state="rryGr"/>
    </tlLogic>
    <tlLogic id="J2" type="static" programID="1" offset="0">
        <phase duration="22" state="GgrGG"/>
        <phase duration="4"  state="yyrGy"/>
        <phase duration="10" state="rrGGr"/>
        <phase duration="4"  state="rryGr"/>
    </tlLogic>

    <junction id="J0" type="dead_end" x="-36.57" y="14.47" incLanes="-E00_0" intLanes="" shape="-36.57,14.47 -36.57,17.67 -36.57,14.47"/>
    <junction id="J1" type="dead_end" x="173.88" y="14.47" incLanes="E0.94_0" intLanes="" shape="173.88,14.47 173.88,11.27 173.88,14.47"/>
    <junction id="J2" type="traffic_light" x="58.14" y="14.47" incLanes="-E0_0 E1_0 E0_0" intLanes=":J2_0_0 :J2_6_0 :J2_2_0 :J2_3_0 :J2_4_0 :J2_5_0" shape="65.33,17.67 65.33,11.27 63.11,10.82 62.33,10.27 61.78,9.49 61.44,8.49 61.33,7.26 54.93,7.27 54.49,9.49 53.93,10.27 53.16,10.83 52.16,11.16 50.93,11.27 50.93,17.67">
        <request index="0" response="000000" foes="001000" cont="0"/>
        <request index="1" response="110000" foes="111000" cont="1"/>
        <request index="2" response="100000" foes="100000" cont="0"/>
        <request index="3" response="100011" foes="100011" cont="0"/>
        <request index="4" response="000000" foes="000010" cont="0"/>
        <request index="5" response="000000" foes="001110" cont="0"/>
    </junction>
    <junction id="J3" type="dead_end" x="57.97" y="-93.90" incLanes="-E1_0" intLanes="" shape="57.97,-93.90 54.77,-93.89 57.97,-93.90"/>

    <junction id=":J2_6_0" type="internal" x="61.34" y="15.43" incLanes=":J2_1_0 E0_0" intLanes=":J2_3_0 :J2_4_0 :J2_5_0"/>

    <connection from="-E0" to="-E00" fromLane="0" toLane="0" via=":J2_0_0" tl="J2" linkIndex="0" dir="s" state="O"/>
    <connection from="-E0" to="-E1" fromLane="0" toLane="0" via=":J2_1_0" tl="J2" linkIndex="1" dir="l" state="o"/>
    <connection from="E0" to="-E1" fromLane="0" toLane="0" via=":J2_4_0" tl="J2" linkIndex="3" dir="r" state="O"/>
    <connection from="E0" to="E0.94" fromLane="0" toLane="0" via=":J2_5_0" tl="J2" linkIndex="4" dir="s" state="O"/>
    <connection from="E1" to="E0.94" fromLane="0" toLane="0" via=":J2_2_0" tl="J2" linkIndex="2" dir="r" state="o"/>
    <connection from="E1" to="-E00" fromLane="0" toLane="0" via=":J2_3_0" tl="J2" linkIndex="2" dir="l" state="o"/>

    <connection from=":J2_0" to="-E00" fromLane="0" toLane="0" dir="s" state="M"/>
    <connection from=":J2_1" to="-E1" fromLane="0" toLane="0" via=":J2_6_0" dir="l" state="m"/>
    <connection from=":J2_6" to="-E1" fromLane="0" toLane="0" dir="l" state="M"/>
    <connection from=":J2_2" to="E0.94" fromLane="0" toLane="0" dir="r" state="M"/>
    <connection from=":J2_3" to="-E00" fromLane="0" toLane="0" dir="l" state="M"/>
    <connection from=":J2_4" to="-E1" fromLane="0" toLane="0" dir="r" state="M"/>
    <connection from=":J2_5" to="E0.94" fromLane="0" toLane="0" dir="s" state="M"/>

</net>
